Circuit: * G:\My Drive\2020_Fall\LTspice_analysis\my_program\Gen4\Type_48\src\new_General_v4.asc

Per .tran options, skipping operating point for transient analysis.
.step kv=0 vv=10
.step kv=0.05 vv=10
.step kv=0.1 vv=10
.step kv=0.15 vv=10
.step kv=0.2 vv=10
.step kv=0 vv=110
.step kv=0.05 vv=110
.step kv=0.1 vv=110
.step kv=0.15 vv=110
.step kv=0.2 vv=110
.step kv=0 vv=210
.step kv=0.05 vv=210
.step kv=0.1 vv=210
.step kv=0.15 vv=210
.step kv=0.2 vv=210
.step kv=0 vv=310
.step kv=0.05 vv=310
.step kv=0.1 vv=310
.step kv=0.15 vv=310
.step kv=0.2 vv=310
.step kv=0 vv=410
.step kv=0.05 vv=410
.step kv=0.1 vv=410
.step kv=0.15 vv=410
.step kv=0.2 vv=410

Date: Sun Nov 15 00:26:41 2020
Total elapsed time: 60.188 seconds.

tnom = 27
temp = 27
method = modified trap
totiter = 197422
traniter = 197422
tranpoints = 57492
accept = 43901
rejected = 13591
matrix size = 25
fillins = 8
solver = Normal
Matrix Compiler1: 2.06 KB object code size  0.6/0.9/[0.2]
Matrix Compiler2: 2.15 KB object code size  0.3/0.9/[0.2]

