Circuit: * C:\Users\shunt\Google Drive\2020_Fall\LTspice_analysis\my_program\Demo\Type_0\src\new_General_v4.asc

Per .tran options, skipping operating point for transient analysis.
.step kv=0 vv=10
.step kv=0.05 vv=10
.step kv=0.1 vv=10
.step kv=0.15 vv=10
.step kv=0.2 vv=10
.step kv=0 vv=110
.step kv=0.05 vv=110
.step kv=0.1 vv=110
.step kv=0.15 vv=110
.step kv=0.2 vv=110
.step kv=0 vv=210
.step kv=0.05 vv=210
.step kv=0.1 vv=210
.step kv=0.15 vv=210
.step kv=0.2 vv=210
.step kv=0 vv=310
.step kv=0.05 vv=310
.step kv=0.1 vv=310
.step kv=0.15 vv=310
.step kv=0.2 vv=310
.step kv=0 vv=410
.step kv=0.05 vv=410
.step kv=0.1 vv=410
.step kv=0.15 vv=410
.step kv=0.2 vv=410

Date: Thu Dec 10 20:20:00 2020
Total elapsed time: 3.098 seconds.

tnom = 27
temp = 27
method = modified trap
totiter = 6172
traniter = 6172
tranpoints = 3087
accept = 3062
rejected = 25
matrix size = 25
fillins = 15
solver = Normal
Matrix Compiler1:     137 opcodes  0.3/0.2/[0.2]
Matrix Compiler2: off  [0.2]/0.2/11.6

